Circuit: * C:\Users\presi\Documents\LTspiceXVII\Transformerless_PSU\CapBridge7813.asc

Direct Newton iteration for .op point succeeded.

Date: Sun Sep 10 13:42:43 2017
Total elapsed time: 0.105 seconds.

tnom = 27
temp = 27
method = modified trap
totiter = 5337
traniter = 5319
tranpoints = 2044
accept = 1705
rejected = 339
matrix size = 17
fillins = 17
solver = Normal
Matrix Compiler1: 2.37 KB object code size  0.7/0.4/[0.2]
Matrix Compiler2: off  [0.2]/0.3/0.2

