Circuit: * C:\Users\presi\Documents\LTspiceXVII\Transformerless_PSU\CapBridge7813_110V.asc

Direct Newton iteration for .op point succeeded.

Date: Sun Sep 10 12:16:21 2017
Total elapsed time: 0.143 seconds.

tnom = 27
temp = 27
method = modified trap
totiter = 3159
traniter = 3141
tranpoints = 1399
accept = 1267
rejected = 132
matrix size = 16
fillins = 13
solver = Normal
Matrix Compiler1: 2.13 KB object code size  1.0/0.4/[0.1]
Matrix Compiler2: 1.60 KB object code size  0.3/0.5/[0.3]

