Circuit: * C:\Users\presi\Documents\LTspiceXVII\Transformerless_PSU\Draft5.asc

Direct Newton iteration for .op point succeeded.

Date: Sun Sep 10 11:06:26 2017
Total elapsed time: 0.210 seconds.

tnom = 27
temp = 27
method = modified trap
totiter = 2264
traniter = 2232
tranpoints = 1072
accept = 1061
rejected = 11
matrix size = 11
fillins = 5
solver = Normal
Matrix Compiler1: 1.50 KB object code size  1.8/1.1/[0.8]
Matrix Compiler2: 1.08 KB object code size  0.7/1.3/[0.2]

