Circuit: * C:\Users\presi\Documents\LTspiceXVII\Transformerless_PSU\Draft2.asc

WARNING: Less than two connections to node N004.  This node is used by L1.
.OP point found by inspection.

Date: Sun Sep 10 12:10:20 2017
Total elapsed time: 0.165 seconds.

tnom = 27
temp = 27
method = modified trap
totiter = 3040
traniter = 3040
tranpoints = 1354
accept = 1245
rejected = 109
matrix size = 11
fillins = 7
solver = Normal
Matrix Compiler1: 802 bytes object code size  0.4/0.2/[0.0]
Matrix Compiler2:      72 opcodes  0.1/[0.1]/0.1

