Circuit: * C:\Users\presi\Documents\LTspiceXVII\Transformerless_PSU\Draft3.asc

Direct Newton iteration for .op point succeeded.

Date: Sun Sep 10 10:15:27 2017
Total elapsed time: 5.668 seconds.

tnom = 27
temp = 27
method = modified trap
totiter = 591663
traniter = 591631
tranpoints = 164006
accept = 113391
rejected = 50615
matrix size = 19
fillins = 15
solver = Normal
Matrix Compiler1: 2.76 KB object code size  1.3/0.5/[0.3]
Matrix Compiler2: 1.99 KB object code size  0.4/0.4/[0.4]

